
  -INDIGO-12132319033D

  0  0  0  0  0  0  0  0  0  0  0 V3000
M  V30 BEGIN CTAB
M  V30 COUNTS 53 55 0 0 0
M  V30 BEGIN ATOM
M  V30 1 C -1.208 0.778 0.572 0
M  V30 2 C -0.005 0.013 0.015 0
M  V30 3 C -0.496 -1.165 -0.829 0
M  V30 4 S -1.382 -0.539 -2.283 0
M  V30 5 C -1.877 -1.997 -3.14 0
M  V30 6 O -1.591 -3.091 -2.694 0
M  V30 7 C -2.639 -1.889 -4.402 0
M  V30 8 C -2.964 -0.635 -4.92 0
M  V30 9 C -3.675 -0.541 -6.099 0
M  V30 10 C -4.067 -1.688 -6.767 0
M  V30 11 C -3.749 -2.935 -6.258 0
M  V30 12 C -3.033 -3.042 -5.084 0
M  V30 13 C 0.835 -0.501 1.155 0
M  V30 14 O 0.367 -1.296 1.943 0
M  V30 15 N 2.106 -0.079 1.3 0
M  V30 16 C 3.064 -0.555 2.301 0
M  V30 17 C 2.844 -2.0 2.689 0
M  V30 18 C 3.13 -2.938 1.517 0
M  V30 19 C 4.584 -2.735 1.078 0
M  V30 20 C 4.749 -1.302 0.577 0
M  V30 21 C 4.457 -0.316 1.69 0
M  V30 22 C 4.23 1.061 0.995 0
M  V30 23 C 2.78 0.941 0.476 0
M  V30 24 C 2.784 0.511 -0.969 0
M  V30 25 O 3.129 1.295 -1.837 0
M  V30 26 O 2.441 -0.619 -1.27 0
M  V30 27 H -1.80458 1.14305 -0.237774 0
M  V30 28 H -0.864651 1.60208 1.16183 0
M  V30 29 H -1.79576 0.123667 1.18133 0
M  V30 30 H 0.58296 0.667345 -0.594127 0
M  V30 31 H 0.341743 -1.75013 -1.14635 0
M  V30 32 H -1.15447 -1.77284 -0.244326 0
M  V30 33 H -2.70944 -1.89438 -3.33433 0
M  V30 34 H -2.67315 0.220964 -4.42225 0
M  V30 35 H -3.91485 0.386263 -6.48329 0
M  V30 36 H -5.13356 -1.64995 -6.84375 0
M  V30 37 H -3.50281 -1.64513 -7.67516 0
M  V30 38 H -4.04826 -3.78676 -6.75797 0
M  V30 39 H -2.78892 -3.97249 -4.71033 0
M  V30 40 H 2.94623 -0.0232993 3.22205 0
M  V30 41 H 3.49661 -2.24652 3.50031 0
M  V30 42 H 1.82061 -2.12085 2.97703 0
M  V30 43 H 2.98317 -3.95293 1.8224 0
M  V30 44 H 2.46754 -2.72347 0.704578 0
M  V30 45 H 5.23759 -2.9036 1.90824 0
M  V30 46 H 4.82856 -3.42448 0.297161 0
M  V30 47 H 4.07024 -1.13118 -0.232325 0
M  V30 48 H 5.75736 -1.16385 0.246804 0
M  V30 49 H 5.24523 -0.387068 2.4101 0
M  V30 50 H 4.32508 1.86638 1.69301 0
M  V30 51 H 4.94195 1.2715 0.224466 0
M  V30 52 H 2.27379 1.88134 0.542482 0
M  V30 53 H 3.39273 2.16384 -1.60562 0
M  V30 END ATOM
M  V30 BEGIN BOND
M  V30 1 1 10 11
M  V30 2 1 10 9
M  V30 3 2 11 12
M  V30 4 2 9 8
M  V30 5 1 12 7
M  V30 6 1 8 7
M  V30 7 1 7 5
M  V30 8 2 5 6
M  V30 9 1 5 4
M  V30 10 1 4 3
M  V30 11 1 25 24
M  V30 12 2 26 24
M  V30 13 1 24 23
M  V30 14 1 3 2
M  V30 15 1 2 1
M  V30 16 1 2 13
M  V30 17 1 23 22
M  V30 18 1 23 15
M  V30 19 1 20 19
M  V30 20 1 20 21
M  V30 21 1 22 21
M  V30 22 1 19 18
M  V30 23 1 13 15
M  V30 24 2 13 14
M  V30 25 1 15 16
M  V30 26 1 18 17
M  V30 27 1 21 16
M  V30 28 1 16 17
M  V30 29 1 1 27
M  V30 30 1 1 28
M  V30 31 1 1 29
M  V30 32 1 2 30
M  V30 33 1 3 31
M  V30 34 1 3 32
M  V30 35 1 7 33
M  V30 36 1 8 34
M  V30 37 1 9 35
M  V30 38 1 10 36
M  V30 39 1 10 37
M  V30 40 1 11 38
M  V30 41 1 12 39
M  V30 42 1 16 40
M  V30 43 1 17 41
M  V30 44 1 17 42
M  V30 45 1 18 43
M  V30 46 1 18 44
M  V30 47 1 19 45
M  V30 48 1 19 46
M  V30 49 1 20 47
M  V30 50 1 20 48
M  V30 51 1 21 49
M  V30 52 1 22 50
M  V30 53 1 22 51
M  V30 54 1 23 52
M  V30 55 1 25 53
M  V30 END BOND
M  V30 END CTAB
M  END
