CHEMBL260861
  -OEChem-07121202273D

 67 71  0     1  0  0  0  0  0999 V2000
    0.3357    1.5711    0.1878 C   0  0  0  0  0  0  0  0  0  0  0  0
    0.5840    0.1715    0.0412 O   0  0  0  0  0  0  0  0  0  0  0  0
    0.7332   -0.5514    1.1822 C   0  0  0  0  0  0  0  0  0  0  0  0
    0.9820   -1.9134    1.1120 C   0  0  0  0  0  0  0  0  0  0  0  0
    1.1349   -2.6519    2.2781 C   0  0  0  0  0  0  0  0  0  0  0  0
    1.0385   -2.0251    3.5135 C   0  0  0  0  0  0  0  0  0  0  0  0
    0.7897   -0.6630    3.5818 C   0  0  0  0  0  0  0  0  0  0  0  0
    0.6423    0.0747    2.4165 C   0  0  0  0  0  0  0  0  0  0  0  0
    0.6948   -0.0496    4.7907 O   0  0  0  0  0  0  0  0  0  0  0  0
    0.4370    1.3560    4.7865 C   0  0  0  0  0  0  0  0  0  0  0  0
    1.3852   -4.0247    2.2084 N   0  0  0  0  0  0  0  0  0  0  0  0
    2.1131   -4.6518    3.2163 C   0  0  0  0  0  0  0  0  0  0  0  0
    2.3439   -6.0431    3.3257 C   0  0  0  0  0  0  0  0  0  0  0  0
    3.1210   -6.2379    4.4853 C   0  0  0  0  0  0  0  0  0  0  0  0
    3.6191   -7.3347    5.0566 N   0  0  0  0  0  0  0  0  0  0  0  0
    4.3320   -7.2652    6.1636 C   0  0  0  0  0  0  0  0  0  0  0  0
    4.5792   -6.0333    6.7605 C   0  0  0  0  0  0  0  0  0  0  0  0
    4.0681   -4.8888    6.1776 C   0  0  0  0  0  0  0  0  0  0  0  0
    3.3338   -5.0040    5.0299 N   0  0  0  0  0  0  0  0  0  0  0  0
    2.7050   -4.0515    4.2210 N   0  0  0  0  0  0  0  0  0  0  0  0
    4.2941   -3.6540    6.7434 N   0  0  0  0  0  0  0  0  0  0  0  0
    5.0822   -3.5450    7.9736 C   0  0  1  0  0  0  0  0  0  0  0  0
    5.8712   -4.2970    7.9674 H   0  0  0  0  0  0  0  0  0  0  0  0
    5.7069   -2.1509    8.0573 C   0  0  0  0  0  0  0  0  0  0  0  0
    6.6955   -1.9751    6.9336 C   0  0  0  0  0  0  0  0  0  0  0  0
    8.0187   -2.3320    7.1150 C   0  0  0  0  0  0  0  0  0  0  0  0
    8.9256   -2.1708    6.0843 C   0  0  0  0  0  0  0  0  0  0  0  0
    8.5093   -1.6531    4.8720 C   0  0  0  0  0  0  0  0  0  0  0  0
    7.1859   -1.2971    4.6903 C   0  0  0  0  0  0  0  0  0  0  0  0
    6.2782   -1.4624    5.7196 C   0  0  0  0  0  0  0  0  0  0  0  0
    4.1729   -3.7699    9.1833 C   0  0  0  0  0  0  0  0  0  0  0  0
    3.2093   -2.7173    9.2572 O   0  0  0  0  0  0  0  0  0  0  0  0
    4.8803   -8.5242    6.7843 C   0  0  0  0  0  0  0  0  0  0  0  0
    3.8732   -9.5568    7.2945 C   0  0  0  0  0  0  0  0  0  0  0  0
    4.6756   -9.8348    6.0218 C   0  0  0  0  0  0  0  0  0  0  0  0
    1.8672   -7.0798    2.4121 C   0  0  0  0  0  0  0  0  0  0  0  0
    2.5483   -7.4111    1.4586 O   0  0  0  0  0  0  0  0  0  0  0  0
    0.6739   -7.6689    2.6249 N   0  0  0  0  0  0  0  0  0  0  0  0
    1.1663    2.0336    0.7210 H   0  0  0  0  0  0  0  0  0  0  0  0
    0.2369    2.0277   -0.7970 H   0  0  0  0  0  0  0  0  0  0  0  0
   -0.5855    1.7196    0.7512 H   0  0  0  0  0  0  0  0  0  0  0  0
    1.0565   -2.4001    0.1508 H   0  0  0  0  0  0  0  0  0  0  0  0
    1.1569   -2.5987    4.4209 H   0  0  0  0  0  0  0  0  0  0  0  0
    0.4529    1.1366    2.4703 H   0  0  0  0  0  0  0  0  0  0  0  0
    1.2398    1.8710    4.2588 H   0  0  0  0  0  0  0  0  0  0  0  0
   -0.5108    1.5500    4.2844 H   0  0  0  0  0  0  0  0  0  0  0  0
    0.3854    1.7190    5.8129 H   0  0  0  0  0  0  0  0  0  0  0  0
    1.0519   -4.5410    1.4578 H   0  0  0  0  0  0  0  0  0  0  0  0
    5.1623   -5.9719    7.6674 H   0  0  0  0  0  0  0  0  0  0  0  0
    3.9315   -2.8562    6.3275 H   0  0  0  0  0  0  0  0  0  0  0  0
    4.9244   -1.3966    7.9742 H   0  0  0  0  0  0  0  0  0  0  0  0
    6.2192   -2.0391    9.0129 H   0  0  0  0  0  0  0  0  0  0  0  0
    8.3439   -2.7364    8.0622 H   0  0  0  0  0  0  0  0  0  0  0  0
    9.9594   -2.4489    6.2262 H   0  0  0  0  0  0  0  0  0  0  0  0
    9.2179   -1.5265    4.0669 H   0  0  0  0  0  0  0  0  0  0  0  0
    6.8608   -0.8924    3.7433 H   0  0  0  0  0  0  0  0  0  0  0  0
    5.2435   -1.1877    5.5765 H   0  0  0  0  0  0  0  0  0  0  0  0
    3.6595   -4.7258    9.0793 H   0  0  0  0  0  0  0  0  0  0  0  0
    4.7735   -3.7772   10.0929 H   0  0  0  0  0  0  0  0  0  0  0  0
    2.5978   -2.7954   10.0023 H   0  0  0  0  0  0  0  0  0  0  0  0
    5.8086   -8.4070    7.3435 H   0  0  0  0  0  0  0  0  0  0  0  0
    4.1388  -10.1191    8.1898 H   0  0  0  0  0  0  0  0  0  0  0  0
    2.8141   -9.3255    7.1813 H   0  0  0  0  0  0  0  0  0  0  0  0
    4.1443   -9.7864    5.0713 H   0  0  0  0  0  0  0  0  0  0  0  0
    5.4690  -10.5800    6.0797 H   0  0  0  0  0  0  0  0  0  0  0  0
    0.1313   -7.4050    3.3845 H   0  0  0  0  0  0  0  0  0  0  0  0
    0.3576   -8.3568    2.0186 H   0  0  0  0  0  0  0  0  0  0  0  0
  1  2  1  0  0  0  0
  1 39  1  0  0  0  0
  1 40  1  0  0  0  0
  1 41  1  0  0  0  0
  2  3  1  0  0  0  0
  3  8  2  0  0  0  0
  3  4  1  0  0  0  0
  4  5  2  0  0  0  0
  4 42  1  0  0  0  0
  5  6  1  0  0  0  0
  5 11  1  0  0  0  0
  6  7  2  0  0  0  0
  6 43  1  0  0  0  0
  7  8  1  0  0  0  0
  7  9  1  0  0  0  0
  8 44  1  0  0  0  0
  9 10  1  0  0  0  0
 10 45  1  0  0  0  0
 10 46  1  0  0  0  0
 10 47  1  0  0  0  0
 11 12  1  0  0  0  0
 11 48  1  0  0  0  0
 12 20  2  0  0  0  0
 12 13  1  0  0  0  0
 13 14  2  0  0  0  0
 13 36  1  0  0  0  0
 14 19  1  0  0  0  0
 14 15  1  0  0  0  0
 15 16  2  0  0  0  0
 16 17  1  0  0  0  0
 16 33  1  0  0  0  0
 17 18  2  0  0  0  0
 17 49  1  0  0  0  0
 18 19  1  0  0  0  0
 18 21  1  0  0  0  0
 19 20  1  0  0  0  0
 21 22  1  0  0  0  0
 21 50  1  0  0  0  0
 22 23  1  0  0  0  0
 22 24  1  0  0  0  0
 22 31  1  0  0  0  0
 24 25  1  0  0  0  0
 24 51  1  0  0  0  0
 24 52  1  0  0  0  0
 25 30  2  0  0  0  0
 25 26  1  0  0  0  0
 26 27  2  0  0  0  0
 26 53  1  0  0  0  0
 27 28  1  0  0  0  0
 27 54  1  0  0  0  0
 28 29  2  0  0  0  0
 28 55  1  0  0  0  0
 29 30  1  0  0  0  0
 29 56  1  0  0  0  0
 30 57  1  0  0  0  0
 31 32  1  0  0  0  0
 31 58  1  0  0  0  0
 31 59  1  0  0  0  0
 32 60  1  0  0  0  0
 33 35  1  0  0  0  0
 33 34  1  0  0  0  0
 33 61  1  0  0  0  0
 34 35  1  0  0  0  0
 34 62  1  0  0  0  0
 34 63  1  0  0  0  0
 35 64  1  0  0  0  0
 35 65  1  0  0  0  0
 36 37  2  0  0  0  0
 36 38  1  0  0  0  0
 38 66  1  0  0  0  0
 38 67  1  0  0  0  0
M  END
