CHEMBL365298
  -OEChem-07121202283D

 82 85  0     1  0  0  0  0  0999 V2000
    1.7903   -3.8086   -2.7886 C   0  0  0  0  0  0  0  0  0  0  0  0
    0.7489   -4.8088   -2.2824 C   0  0  2  0  0  0  0  0  0  0  0  0
   -0.3942   -4.0634   -1.6431 C   0  0  0  0  0  0  0  0  0  0  0  0
   -0.6671   -4.2559   -0.4772 O   0  0  0  0  0  0  0  0  0  0  0  0
   -1.1134   -3.1830   -2.3671 N   0  0  0  0  0  0  0  0  0  0  0  0
   -2.2247   -2.4585   -1.7456 C   0  0  2  0  0  0  0  0  0  0  0  0
   -2.7198   -3.1048   -1.0208 H   0  0  0  0  0  0  0  0  0  0  0  0
   -3.2116   -2.0459   -2.8072 C   0  0  0  0  0  0  0  0  0  0  0  0
   -2.8156   -1.6709   -3.8904 O   0  0  0  0  0  0  0  0  0  0  0  0
   -4.5343   -2.0936   -2.5528 N   0  0  0  0  0  0  0  0  0  0  0  0
   -5.1463   -2.4213   -1.2568 C   0  0  0  0  0  0  0  0  0  0  0  0
   -6.6761   -2.3248   -1.4351 C   0  0  2  0  0  0  0  0  0  0  0  0
   -7.1036   -3.3070   -1.6367 H   0  0  0  0  0  0  0  0  0  0  0  0
   -6.8242   -1.3976   -2.6702 C   0  0  0  0  0  0  0  0  0  0  0  0
   -5.6069   -1.8196   -3.5263 C   0  0  1  0  0  0  0  0  0  0  0  0
   -5.8405   -2.7187   -4.0965 H   0  0  0  0  0  0  0  0  0  0  0  0
   -5.2023   -0.7008   -4.4514 C   0  0  0  0  0  0  0  0  0  0  0  0
   -4.3587    0.0983   -4.1039 O   0  0  0  0  0  0  0  0  0  0  0  0
   -5.7780   -0.5882   -5.6648 N   0  0  0  0  0  0  0  0  0  0  0  0
   -5.3847    0.4994   -6.5641 C   0  0  2  0  0  0  0  0  0  0  0  0
   -6.5410    0.8123   -7.5117 C   0  0  0  0  0  0  0  0  0  0  0  0
   -6.0399    1.7927   -8.5788 C   0  0  0  0  0  0  0  0  0  0  0  0
   -5.0671    1.0521   -9.4942 C   0  0  0  0  0  0  0  0  0  0  0  0
   -4.0141    0.3422   -8.6842 C   0  0  0  0  0  0  0  0  0  0  0  0
   -4.1616    0.0850   -7.3394 C   0  0  0  0  0  0  0  0  0  0  0  0
   -3.1548   -0.5800   -6.6520 C   0  0  0  0  0  0  0  0  0  0  0  0
   -2.0072   -0.9815   -7.3045 C   0  0  0  0  0  0  0  0  0  0  0  0
   -1.8575   -0.7198   -8.6535 C   0  0  0  0  0  0  0  0  0  0  0  0
   -2.8575   -0.0610   -9.3387 C   0  0  0  0  0  0  0  0  0  0  0  0
   -7.2835   -1.7381   -0.2822 O   0  0  0  0  0  0  0  0  0  0  0  0
   -7.5682   -2.5686    0.7551 C   0  0  0  0  0  0  0  0  0  0  0  0
   -8.2318   -2.0825    1.8723 C   0  0  0  0  0  0  0  0  0  0  0  0
   -8.5206   -2.9288    2.9253 C   0  0  0  0  0  0  0  0  0  0  0  0
   -8.1484   -4.2592    2.8666 C   0  0  0  0  0  0  0  0  0  0  0  0
   -7.4865   -4.7459    1.7545 C   0  0  0  0  0  0  0  0  0  0  0  0
   -7.2010   -3.9051    0.6963 C   0  0  0  0  0  0  0  0  0  0  0  0
   -1.6886   -1.2134   -1.0362 C   0  0  0  0  0  0  0  0  0  0  0  0
   -0.8836   -0.3692   -2.0262 C   0  0  0  0  0  0  0  0  0  0  0  0
   -2.8597   -0.3893   -0.4975 C   0  0  0  0  0  0  0  0  0  0  0  0
   -0.7862   -1.6367    0.1247 C   0  0  0  0  0  0  0  0  0  0  0  0
    1.3672   -5.7002   -1.2919 N   0  3  0  0  0  0  0  0  0  0  0  0
    2.4024   -6.5134   -1.9437 C   0  0  0  0  0  0  0  0  0  0  0  0
    2.6171   -4.3477   -3.2510 H   0  0  0  0  0  0  0  0  0  0  0  0
    1.3315   -3.1472   -3.5236 H   0  0  0  0  0  0  0  0  0  0  0  0
    2.1640   -3.2184   -1.9519 H   0  0  0  0  0  0  0  0  0  0  0  0
    0.3752   -5.3990   -3.1191 H   0  0  0  0  0  0  0  0  0  0  0  0
   -0.8952   -3.0291   -3.2996 H   0  0  0  0  0  0  0  0  0  0  0  0
   -4.8705   -3.4339   -0.9621 H   0  0  0  0  0  0  0  0  0  0  0  0
   -4.8156   -1.7098   -0.5002 H   0  0  0  0  0  0  0  0  0  0  0  0
   -7.7595   -1.5923   -3.1950 H   0  0  0  0  0  0  0  0  0  0  0  0
   -6.7505   -0.3488   -2.3825 H   0  0  0  0  0  0  0  0  0  0  0  0
   -6.4527   -1.2273   -5.9427 H   0  0  0  0  0  0  0  0  0  0  0  0
   -5.1533    1.3868   -5.9750 H   0  0  0  0  0  0  0  0  0  0  0  0
   -6.8835   -0.1060   -7.9887 H   0  0  0  0  0  0  0  0  0  0  0  0
   -7.3608    1.2646   -6.9536 H   0  0  0  0  0  0  0  0  0  0  0  0
   -6.8831    2.1631   -9.1619 H   0  0  0  0  0  0  0  0  0  0  0  0
   -5.5294    2.6278   -8.0993 H   0  0  0  0  0  0  0  0  0  0  0  0
   -5.6172    0.3217  -10.0876 H   0  0  0  0  0  0  0  0  0  0  0  0
   -4.5860    1.7673  -10.1613 H   0  0  0  0  0  0  0  0  0  0  0  0
   -3.2707   -0.7843   -5.5979 H   0  0  0  0  0  0  0  0  0  0  0  0
   -1.2286   -1.4981   -6.7631 H   0  0  0  0  0  0  0  0  0  0  0  0
   -0.9606   -1.0297   -9.1692 H   0  0  0  0  0  0  0  0  0  0  0  0
   -2.7399    0.1429  -10.3927 H   0  0  0  0  0  0  0  0  0  0  0  0
   -8.5221   -1.0433    1.9189 H   0  0  0  0  0  0  0  0  0  0  0  0
   -9.0371   -2.5509    3.7952 H   0  0  0  0  0  0  0  0  0  0  0  0
   -8.3747   -4.9191    3.6910 H   0  0  0  0  0  0  0  0  0  0  0  0
   -7.1966   -5.7854    1.7113 H   0  0  0  0  0  0  0  0  0  0  0  0
   -6.6879   -4.2868   -0.1741 H   0  0  0  0  0  0  0  0  0  0  0  0
   -1.5264   -0.0676   -2.8532 H   0  0  0  0  0  0  0  0  0  0  0  0
   -0.5016    0.5178   -1.5208 H   0  0  0  0  0  0  0  0  0  0  0  0
   -0.0493   -0.9563   -2.4100 H   0  0  0  0  0  0  0  0  0  0  0  0
   -3.3710   -0.9520    0.2836 H   0  0  0  0  0  0  0  0  0  0  0  0
   -2.4853    0.5474   -0.0846 H   0  0  0  0  0  0  0  0  0  0  0  0
   -3.5571   -0.1763   -1.3076 H   0  0  0  0  0  0  0  0  0  0  0  0
    0.0481   -2.2239   -0.2591 H   0  0  0  0  0  0  0  0  0  0  0  0
   -0.4042   -0.7498    0.6301 H   0  0  0  0  0  0  0  0  0  0  0  0
   -1.3597   -2.2382    0.8300 H   0  0  0  0  0  0  0  0  0  0  0  0
    1.7855   -5.1486   -0.5578 H   0  0  0  0  0  0  0  0  0  0  0  0
    1.9506   -7.1093   -2.7367 H   0  0  0  0  0  0  0  0  0  0  0  0
    3.1637   -5.8596   -2.3693 H   0  0  0  0  0  0  0  0  0  0  0  0
    2.8612   -7.1748   -1.2087 H   0  0  0  0  0  0  0  0  0  0  0  0
    0.6625   -6.3054   -0.8979 H   0  0  0  0  0  0  0  0  0  0  0  0
  1  2  1  0  0  0  0
  1 43  1  0  0  0  0
  1 44  1  0  0  0  0
  1 45  1  0  0  0  0
  2  3  1  0  0  0  0
  2 41  1  0  0  0  0
  2 46  1  0  0  0  0
  3  4  2  0  0  0  0
  3  5  1  0  0  0  0
  5  6  1  0  0  0  0
  5 47  1  0  0  0  0
  6  7  1  0  0  0  0
  6  8  1  0  0  0  0
  6 37  1  0  0  0  0
  8  9  2  0  0  0  0
  8 10  1  0  0  0  0
 10 15  1  0  0  0  0
 10 11  1  0  0  0  0
 11 12  1  0  0  0  0
 11 48  1  0  0  0  0
 11 49  1  0  0  0  0
 12 13  1  0  0  0  0
 12 14  1  0  0  0  0
 12 30  1  0  0  0  0
 14 15  1  0  0  0  0
 14 50  1  0  0  0  0
 14 51  1  0  0  0  0
 15 16  1  0  0  0  0
 15 17  1  0  0  0  0
 17 18  2  0  0  0  0
 17 19  1  0  0  0  0
 19 20  1  0  0  0  0
 19 52  1  0  0  0  0
 20 25  1  0  0  0  0
 20 21  1  0  0  0  0
 20 53  1  0  0  0  0
 21 22  1  0  0  0  0
 21 54  1  0  0  0  0
 21 55  1  0  0  0  0
 22 23  1  0  0  0  0
 22 56  1  0  0  0  0
 22 57  1  0  0  0  0
 23 24  1  0  0  0  0
 23 58  1  0  0  0  0
 23 59  1  0  0  0  0
 24 29  2  0  0  0  0
 24 25  1  0  0  0  0
 25 26  2  0  0  0  0
 26 27  1  0  0  0  0
 26 60  1  0  0  0  0
 27 28  2  0  0  0  0
 27 61  1  0  0  0  0
 28 29  1  0  0  0  0
 28 62  1  0  0  0  0
 29 63  1  0  0  0  0
 30 31  1  0  0  0  0
 31 36  2  0  0  0  0
 31 32  1  0  0  0  0
 32 33  2  0  0  0  0
 32 64  1  0  0  0  0
 33 34  1  0  0  0  0
 33 65  1  0  0  0  0
 34 35  2  0  0  0  0
 34 66  1  0  0  0  0
 35 36  1  0  0  0  0
 35 67  1  0  0  0  0
 36 68  1  0  0  0  0
 37 38  1  0  0  0  0
 37 39  1  0  0  0  0
 37 40  1  0  0  0  0
 38 69  1  0  0  0  0
 38 70  1  0  0  0  0
 38 71  1  0  0  0  0
 39 72  1  0  0  0  0
 39 73  1  0  0  0  0
 39 74  1  0  0  0  0
 40 75  1  0  0  0  0
 40 76  1  0  0  0  0
 40 77  1  0  0  0  0
 41 42  1  0  0  0  0
 41 78  1  0  0  0  0
 41 82  1  0  0  0  0
 42 79  1  0  0  0  0
 42 80  1  0  0  0  0
 42 81  1  0  0  0  0
M  CHG  1  41   1
M  END
