CHEMBL203094
  -OEChem-07121202273D

 55 59  0     1  0  0  0  0  0999 V2000
    0.0238    1.4018    0.0400 C   0  0  0  0  0  0  0  0  0  0  0  0
    0.0677   -0.0265    0.0387 O   0  0  0  0  0  0  0  0  0  0  0  0
    0.6666   -0.6239   -1.0236 C   0  0  0  0  0  0  0  0  0  0  0  0
    0.7771   -2.0069   -1.0776 C   0  0  0  0  0  0  0  0  0  0  0  0
    1.3436   -2.6046   -2.1794 C   0  0  0  0  0  0  0  0  0  0  0  0
    1.7875   -1.8477   -3.2583 C   0  0  0  0  0  0  0  0  0  0  0  0
    1.7854   -0.4707   -3.1497 C   0  0  0  0  0  0  0  0  0  0  0  0
    1.2016    0.1421   -2.0446 C   0  0  0  0  0  0  0  0  0  0  0  0
    2.4004    0.3233   -4.0669 O   0  0  0  0  0  0  0  0  0  0  0  0
    2.3333    1.7345   -3.8524 C   0  0  0  0  0  0  0  0  0  0  0  0
    2.2098   -2.5834   -4.4994 C   0  0  2  0  0  0  0  0  0  0  0  0
    2.1659   -1.6997   -5.7345 C   0  0  2  0  0  0  0  0  0  0  0  0
    0.8366   -0.9806   -5.9123 C   0  0  0  0  0  0  0  0  0  0  0  0
   -0.2918   -1.9456   -6.2676 C   0  0  0  0  0  0  0  0  0  0  0  0
    0.0812   -2.7459   -7.5205 C   0  0  0  0  0  0  0  0  0  0  0  0
    1.3595   -3.5451   -7.1934 C   0  0  1  0  0  0  0  0  0  0  0  0
    2.4149   -2.5491   -6.9203 N   0  0  0  0  0  0  0  0  0  0  0  0
    3.5178   -2.4206   -7.6842 C   0  0  0  0  0  0  0  0  0  0  0  0
    4.3085   -1.5264   -7.4631 O   0  0  0  0  0  0  0  0  0  0  0  0
    3.7667   -3.3766   -8.8009 C   0  0  0  0  0  0  0  0  0  0  0  0
    2.9223   -4.2007   -9.0954 O   0  0  0  0  0  0  0  0  0  0  0  0
    4.9854   -3.3251   -9.5179 C   0  0  0  0  0  0  0  0  0  0  0  0
    5.3457   -4.1432  -10.5751 C   0  0  0  0  0  0  0  0  0  0  0  0
    6.6246   -3.7386  -10.9729 C   0  0  0  0  0  0  0  0  0  0  0  0
    6.9911   -2.7139  -10.1654 C   0  0  0  0  0  0  0  0  0  0  0  0
    6.0029   -2.4655   -9.2977 O   0  0  0  0  0  0  0  0  0  0  0  0
    1.0925   -4.2782   -5.9052 C   0  0  0  0  0  0  0  0  0  0  0  0
    0.5276   -5.3506   -5.9613 O   0  0  0  0  0  0  0  0  0  0  0  0
    1.4443   -3.8116   -4.6904 N   0  0  0  0  0  0  0  0  0  0  0  0
    1.0094   -4.6354   -3.5533 C   0  0  0  0  0  0  0  0  0  0  0  0
    1.5364   -4.0978   -2.2313 C   0  0  0  0  0  0  0  0  0  0  0  0
    1.0396    1.7966    0.0163 H   0  0  0  0  0  0  0  0  0  0  0  0
   -0.5217    1.7494   -0.8373 H   0  0  0  0  0  0  0  0  0  0  0  0
   -0.4799    1.7490    0.9422 H   0  0  0  0  0  0  0  0  0  0  0  0
    0.4191   -2.6137   -0.2580 H   0  0  0  0  0  0  0  0  0  0  0  0
    1.1623    1.2204   -1.9902 H   0  0  0  0  0  0  0  0  0  0  0  0
    2.8624    2.2495   -4.6542 H   0  0  0  0  0  0  0  0  0  0  0  0
    1.2904    2.0514   -3.8430 H   0  0  0  0  0  0  0  0  0  0  0  0
    2.7959    1.9791   -2.8962 H   0  0  0  0  0  0  0  0  0  0  0  0
    3.2591   -2.8817   -4.3546 H   0  0  0  0  0  0  0  0  0  0  0  0
    2.9769   -0.9682   -5.6836 H   0  0  0  0  0  0  0  0  0  0  0  0
    0.5639   -0.4502   -5.0013 H   0  0  0  0  0  0  0  0  0  0  0  0
    0.9367   -0.2467   -6.7190 H   0  0  0  0  0  0  0  0  0  0  0  0
   -0.4722   -2.6212   -5.4339 H   0  0  0  0  0  0  0  0  0  0  0  0
   -1.2011   -1.3734   -6.4643 H   0  0  0  0  0  0  0  0  0  0  0  0
   -0.7283   -3.4310   -7.7729 H   0  0  0  0  0  0  0  0  0  0  0  0
    0.2685   -2.0677   -8.3515 H   0  0  0  0  0  0  0  0  0  0  0  0
    1.6320   -4.2229   -8.0003 H   0  0  0  0  0  0  0  0  0  0  0  0
    4.7558   -4.9379  -11.0073 H   0  0  0  0  0  0  0  0  0  0  0  0
    7.2107   -4.1641  -11.7741 H   0  0  0  0  0  0  0  0  0  0  0  0
    7.9287   -2.1803  -10.2168 H   0  0  0  0  0  0  0  0  0  0  0  0
   -0.0805   -4.6542   -3.5227 H   0  0  0  0  0  0  0  0  0  0  0  0
    1.3747   -5.6546   -3.6932 H   0  0  0  0  0  0  0  0  0  0  0  0
    2.5992   -4.3265   -2.1407 H   0  0  0  0  0  0  0  0  0  0  0  0
    0.9981   -4.5621   -1.4044 H   0  0  0  0  0  0  0  0  0  0  0  0
  1  2  1  0  0  0  0
  1 32  1  0  0  0  0
  1 33  1  0  0  0  0
  1 34  1  0  0  0  0
  2  3  1  0  0  0  0
  3  8  2  0  0  0  0
  3  4  1  0  0  0  0
  4  5  2  0  0  0  0
  4 35  1  0  0  0  0
  5 31  1  0  0  0  0
  5  6  1  0  0  0  0
  6  7  2  0  0  0  0
  6 11  1  0  0  0  0
  7  8  1  0  0  0  0
  7  9  1  0  0  0  0
  8 36  1  0  0  0  0
  9 10  1  0  0  0  0
 10 37  1  0  0  0  0
 10 38  1  0  0  0  0
 10 39  1  0  0  0  0
 11 29  1  0  0  0  0
 11 12  1  0  0  0  0
 11 40  1  0  0  0  0
 12 17  1  0  0  0  0
 12 13  1  0  0  0  0
 12 41  1  0  0  0  0
 13 14  1  0  0  0  0
 13 42  1  0  0  0  0
 13 43  1  0  0  0  0
 14 15  1  0  0  0  0
 14 44  1  0  0  0  0
 14 45  1  0  0  0  0
 15 16  1  0  0  0  0
 15 46  1  0  0  0  0
 15 47  1  0  0  0  0
 16 17  1  0  0  0  0
 16 27  1  0  0  0  0
 16 48  1  0  0  0  0
 17 18  1  0  0  0  0
 18 19  2  0  0  0  0
 18 20  1  0  0  0  0
 20 21  2  0  0  0  0
 20 22  1  0  0  0  0
 22 26  1  0  0  0  0
 22 23  2  0  0  0  0
 23 24  1  0  0  0  0
 23 49  1  0  0  0  0
 24 25  2  0  0  0  0
 24 50  1  0  0  0  0
 25 26  1  0  0  0  0
 25 51  1  0  0  0  0
 27 28  2  0  0  0  0
 27 29  1  0  0  0  0
 29 30  1  0  0  0  0
 30 31  1  0  0  0  0
 30 52  1  0  0  0  0
 30 53  1  0  0  0  0
 31 54  1  0  0  0  0
 31 55  1  0  0  0  0
M  END
