CHEMBL480556
  -OEChem-07121202273D

 64 68  0     0  0  0  0  0  0999 V2000
   -2.2237    1.2650    1.5138 C   0  0  0  0  0  0  0  0  0  0  0  0
   -1.8300   -0.0695    1.8395 O   0  0  0  0  0  0  0  0  0  0  0  0
   -0.4159   -0.2511    1.9364 C   0  0  0  0  0  0  0  0  0  0  0  0
   -0.1117   -1.7089    2.2873 C   0  0  0  0  0  0  0  0  0  0  0  0
   -0.5287   -2.5543    1.2134 O   0  0  0  0  0  0  0  0  0  0  0  0
   -0.3284   -3.8908    1.3662 C   0  0  0  0  0  0  0  0  0  0  0  0
    0.2523   -4.3762    2.5285 C   0  0  0  0  0  0  0  0  0  0  0  0
    0.4561   -5.7332    2.6845 C   0  0  0  0  0  0  0  0  0  0  0  0
    0.0796   -6.6118    1.6772 C   0  0  0  0  0  0  0  0  0  0  0  0
   -0.5017   -6.1250    0.5139 C   0  0  0  0  0  0  0  0  0  0  0  0
   -0.7100   -4.7681    0.3619 C   0  0  0  0  0  0  0  0  0  0  0  0
    0.2862   -7.9869    1.8342 N   0  0  0  0  0  0  0  0  0  0  0  0
   -0.2111   -8.9440    0.8343 C   0  0  0  0  0  0  0  0  0  0  0  0
    0.9428   -9.8668    0.4278 C   0  0  0  0  0  0  0  0  0  0  0  0
    1.5277  -10.4733    1.6311 N   0  0  0  0  0  0  0  0  0  0  0  0
    2.1123   -9.4531    2.5117 C   0  0  0  0  0  0  0  0  0  0  0  0
    1.0116   -8.5129    3.0005 C   0  0  0  0  0  0  0  0  0  0  0  0
    2.5223  -11.4944    1.2756 C   0  0  0  0  0  0  0  0  0  0  0  0
    2.9247  -12.2727    2.5298 C   0  0  0  0  0  0  0  0  0  0  0  0
    1.7967  -12.9989    3.0222 O   0  0  0  0  0  0  0  0  0  0  0  0
    1.9851  -13.7466    4.1376 C   0  0  0  0  0  0  0  0  0  0  0  0
    0.9381  -14.4760    4.6607 C   0  0  0  0  0  0  0  0  0  0  0  0
    1.1663  -15.2414    5.8180 C   0  0  0  0  0  0  0  0  0  0  0  0
    0.4038  -16.0327    6.5567 N   0  0  0  0  0  0  0  0  0  0  0  0
    1.1229  -16.5294    7.5694 C   0  0  0  0  0  0  0  0  0  0  0  0
    2.3574  -16.0662    7.4983 N   0  0  0  0  0  0  0  0  0  0  0  0
    2.4191  -15.2299    6.3765 N   0  0  0  0  0  0  0  0  0  0  0  0
    3.4081  -14.4872    5.8084 C   0  0  0  0  0  0  0  0  0  0  0  0
    3.1867  -13.7785    4.7232 N   0  0  0  0  0  0  0  0  0  0  0  0
    4.6604  -14.4821    6.3755 N   0  0  0  0  0  0  0  0  0  0  0  0
    0.6148  -17.4518    8.6064 C   0  0  0  0  0  0  0  0  0  0  0  0
   -0.6511  -17.9402    8.6886 C   0  0  0  0  0  0  0  0  0  0  0  0
   -0.6912  -18.7751    9.8229 C   0  0  0  0  0  0  0  0  0  0  0  0
    0.5396  -18.7553   10.3713 C   0  0  0  0  0  0  0  0  0  0  0  0
    1.3273  -17.9591    9.6308 O   0  0  0  0  0  0  0  0  0  0  0  0
   -3.3110    1.3199    1.4591 H   0  0  0  0  0  0  0  0  0  0  0  0
   -1.8637    1.9481    2.2832 H   0  0  0  0  0  0  0  0  0  0  0  0
   -1.7968    1.5449    0.5508 H   0  0  0  0  0  0  0  0  0  0  0  0
    0.0485   -0.0026    0.9821 H   0  0  0  0  0  0  0  0  0  0  0  0
   -0.0184    0.4005    2.7145 H   0  0  0  0  0  0  0  0  0  0  0  0
    0.9597   -1.8278    2.4484 H   0  0  0  0  0  0  0  0  0  0  0  0
   -0.6483   -1.9835    3.1954 H   0  0  0  0  0  0  0  0  0  0  0  0
    0.5454   -3.6927    3.3117 H   0  0  0  0  0  0  0  0  0  0  0  0
    0.9086   -6.1110    3.5895 H   0  0  0  0  0  0  0  0  0  0  0  0
   -0.7948   -6.8076   -0.2700 H   0  0  0  0  0  0  0  0  0  0  0  0
   -1.1664   -4.3898   -0.5408 H   0  0  0  0  0  0  0  0  0  0  0  0
   -1.0192   -9.5358    1.2641 H   0  0  0  0  0  0  0  0  0  0  0  0
   -0.5739   -8.4043   -0.0404 H   0  0  0  0  0  0  0  0  0  0  0  0
    0.5670  -10.6513   -0.2291 H   0  0  0  0  0  0  0  0  0  0  0  0
    1.7045   -9.2882   -0.0949 H   0  0  0  0  0  0  0  0  0  0  0  0
    2.5846   -9.9377    3.3662 H   0  0  0  0  0  0  0  0  0  0  0  0
    2.8576   -8.8803    1.9600 H   0  0  0  0  0  0  0  0  0  0  0  0
    1.4568   -7.6884    3.5573 H   0  0  0  0  0  0  0  0  0  0  0  0
    0.3233   -9.0625    3.6426 H   0  0  0  0  0  0  0  0  0  0  0  0
    2.0938  -12.1799    0.5444 H   0  0  0  0  0  0  0  0  0  0  0  0
    3.4019  -11.0119    0.8495 H   0  0  0  0  0  0  0  0  0  0  0  0
    3.7260  -12.9694    2.2836 H   0  0  0  0  0  0  0  0  0  0  0  0
    3.2705  -11.5767    3.2941 H   0  0  0  0  0  0  0  0  0  0  0  0
   -0.0350  -14.4594    4.1924 H   0  0  0  0  0  0  0  0  0  0  0  0
    4.8334  -15.0050    7.1740 H   0  0  0  0  0  0  0  0  0  0  0  0
    5.3710  -13.9556    5.9772 H   0  0  0  0  0  0  0  0  0  0  0  0
   -1.4684  -17.7288    8.0150 H   0  0  0  0  0  0  0  0  0  0  0  0
   -1.5466  -19.3262   10.1847 H   0  0  0  0  0  0  0  0  0  0  0  0
    0.8430  -19.2933   11.2572 H   0  0  0  0  0  0  0  0  0  0  0  0
  1  2  1  0  0  0  0
  1 36  1  0  0  0  0
  1 37  1  0  0  0  0
  1 38  1  0  0  0  0
  2  3  1  0  0  0  0
  3  4  1  0  0  0  0
  3 39  1  0  0  0  0
  3 40  1  0  0  0  0
  4  5  1  0  0  0  0
  4 41  1  0  0  0  0
  4 42  1  0  0  0  0
  5  6  1  0  0  0  0
  6 11  2  0  0  0  0
  6  7  1  0  0  0  0
  7  8  2  0  0  0  0
  7 43  1  0  0  0  0
  8  9  1  0  0  0  0
  8 44  1  0  0  0  0
  9 10  2  0  0  0  0
  9 12  1  0  0  0  0
 10 11  1  0  0  0  0
 10 45  1  0  0  0  0
 11 46  1  0  0  0  0
 12 17  1  0  0  0  0
 12 13  1  0  0  0  0
 13 14  1  0  0  0  0
 13 47  1  0  0  0  0
 13 48  1  0  0  0  0
 14 15  1  0  0  0  0
 14 49  1  0  0  0  0
 14 50  1  0  0  0  0
 15 16  1  0  0  0  0
 15 18  1  0  0  0  0
 16 17  1  0  0  0  0
 16 51  1  0  0  0  0
 16 52  1  0  0  0  0
 17 53  1  0  0  0  0
 17 54  1  0  0  0  0
 18 19  1  0  0  0  0
 18 55  1  0  0  0  0
 18 56  1  0  0  0  0
 19 20  1  0  0  0  0
 19 57  1  0  0  0  0
 19 58  1  0  0  0  0
 20 21  1  0  0  0  0
 21 29  1  0  0  0  0
 21 22  2  0  0  0  0
 22 23  1  0  0  0  0
 22 59  1  0  0  0  0
 23 27  1  0  0  0  0
 23 24  2  0  0  0  0
 24 25  1  0  0  0  0
 25 26  2  0  0  0  0
 25 31  1  0  0  0  0
 26 27  1  0  0  0  0
 27 28  1  0  0  0  0
 28 29  2  0  0  0  0
 28 30  1  0  0  0  0
 30 60  1  0  0  0  0
 30 61  1  0  0  0  0
 31 35  1  0  0  0  0
 31 32  2  0  0  0  0
 32 33  1  0  0  0  0
 32 62  1  0  0  0  0
 33 34  2  0  0  0  0
 33 63  1  0  0  0  0
 34 35  1  0  0  0  0
 34 64  1  0  0  0  0
M  END
