CHEMBL45582
  -OEChem-07121202273D

 78 83  0     0  0  0  0  0  0999 V2000
   -2.7507    1.1843   -1.1216 C   0  0  0  0  0  0  0  0  0  0  0  0
   -2.4998   -0.2605   -1.0347 N   0  0  0  0  0  0  0  0  0  0  0  0
   -3.7197   -0.9848   -0.6507 C   0  0  0  0  0  0  0  0  0  0  0  0
   -3.4318   -2.4876   -0.6295 C   0  0  0  0  0  0  0  0  0  0  0  0
   -2.3541   -2.7664    0.3288 N   0  3  0  0  0  0  0  0  0  0  0  0
   -1.1357   -2.0559   -0.0816 C   0  0  0  0  0  0  0  0  0  0  0  0
   -1.4046   -0.5495   -0.0982 C   0  0  0  0  0  0  0  0  0  0  0  0
   -2.0904   -4.2111    0.3620 C   0  0  0  0  0  0  0  0  0  0  0  0
   -3.3588   -4.9513    0.7912 C   0  0  0  0  0  0  0  0  0  0  0  0
   -3.0841   -6.4561    0.8258 C   0  0  0  0  0  0  0  0  0  0  0  0
   -1.9615   -6.7468    1.8239 C   0  0  0  0  0  0  0  0  0  0  0  0
   -0.6931   -6.0066    1.3947 C   0  0  0  0  0  0  0  0  0  0  0  0
   -0.9678   -4.5018    1.3601 C   0  0  0  0  0  0  0  0  0  0  0  0
   -1.6986   -8.1876    1.8571 N   0  0  0  0  0  0  0  0  0  0  0  0
   -1.8161   -8.9842    2.9568 C   0  0  0  0  0  0  0  0  0  0  0  0
   -1.4730  -10.2889    2.5551 C   0  0  0  0  0  0  0  0  0  0  0  0
   -1.1418  -10.2104    1.1325 C   0  0  0  0  0  0  0  0  0  0  0  0
   -1.2936   -8.9604    0.7636 N   0  0  0  0  0  0  0  0  0  0  0  0
   -0.7185  -11.3362    0.2662 C   0  0  0  0  0  0  0  0  0  0  0  0
   -1.3961  -12.5535    0.3230 C   0  0  0  0  0  0  0  0  0  0  0  0
   -1.0018  -13.6014   -0.4830 C   0  0  0  0  0  0  0  0  0  0  0  0
    0.0699  -13.4467   -1.3520 C   0  0  0  0  0  0  0  0  0  0  0  0
    0.7504  -12.2313   -1.4128 C   0  0  0  0  0  0  0  0  0  0  0  0
    0.3542  -11.1773   -0.6107 C   0  0  0  0  0  0  0  0  0  0  0  0
    1.8004  -12.0812   -2.2642 O   0  0  0  0  0  0  0  0  0  0  0  0
    2.4510  -10.8089   -2.2740 C   0  0  0  0  0  0  0  0  0  0  0  0
    0.4677  -14.5114   -2.1670 N   0  0  0  0  0  0  0  0  0  0  0  0
   -0.2464  -15.7890   -2.1035 C   0  0  0  0  0  0  0  0  0  0  0  0
    0.3751  -16.7607   -3.0733 C   0  0  0  0  0  0  0  0  0  0  0  0
   -0.0842  -16.8268   -4.3755 C   0  0  0  0  0  0  0  0  0  0  0  0
    0.4859  -17.7180   -5.2651 C   0  0  0  0  0  0  0  0  0  0  0  0
    1.5157  -18.5429   -4.8527 C   0  0  0  0  0  0  0  0  0  0  0  0
    1.9756  -18.4762   -3.5508 C   0  0  0  0  0  0  0  0  0  0  0  0
    1.4083  -17.5819   -2.6624 C   0  0  0  0  0  0  0  0  0  0  0  0
   -1.5122  -11.3175    3.5104 C   0  0  0  0  0  0  0  0  0  0  0  0
   -1.8725  -11.0113    4.7531 N   0  0  0  0  0  0  0  0  0  0  0  0
   -2.1867   -9.7722    5.0866 C   0  0  0  0  0  0  0  0  0  0  0  0
   -2.1642   -8.7776    4.2266 N   0  0  0  0  0  0  0  0  0  0  0  0
   -1.1852  -12.6152    3.1674 N   0  0  0  0  0  0  0  0  0  0  0  0
   -1.8500    1.6891   -1.4708 H   0  0  0  0  0  0  0  0  0  0  0  0
   -3.5657    1.3701   -1.8211 H   0  0  0  0  0  0  0  0  0  0  0  0
   -3.0227    1.5657   -0.1374 H   0  0  0  0  0  0  0  0  0  0  0  0
   -4.0379   -0.6615    0.3405 H   0  0  0  0  0  0  0  0  0  0  0  0
   -4.5092   -0.7759   -1.3726 H   0  0  0  0  0  0  0  0  0  0  0  0
   -4.3315   -3.0257   -0.3311 H   0  0  0  0  0  0  0  0  0  0  0  0
   -3.1268   -2.8131   -1.6241 H   0  0  0  0  0  0  0  0  0  0  0  0
   -0.3332   -2.2740    0.6230 H   0  0  0  0  0  0  0  0  0  0  0  0
   -0.8425   -2.3836   -1.0790 H   0  0  0  0  0  0  0  0  0  0  0  0
   -0.5050   -0.0230   -0.4170 H   0  0  0  0  0  0  0  0  0  0  0  0
   -1.6846   -0.2190    0.9021 H   0  0  0  0  0  0  0  0  0  0  0  0
   -1.7908   -4.5487   -0.6302 H   0  0  0  0  0  0  0  0  0  0  0  0
   -3.6583   -4.6137    1.7834 H   0  0  0  0  0  0  0  0  0  0  0  0
   -4.1585   -4.7442    0.0801 H   0  0  0  0  0  0  0  0  0  0  0  0
   -3.9877   -6.9834    1.1316 H   0  0  0  0  0  0  0  0  0  0  0  0
   -2.7846   -6.7936   -0.1664 H   0  0  0  0  0  0  0  0  0  0  0  0
   -2.2611   -6.4092    2.8161 H   0  0  0  0  0  0  0  0  0  0  0  0
    0.1066   -6.2137    2.1058 H   0  0  0  0  0  0  0  0  0  0  0  0
   -0.3936   -6.3441    0.4025 H   0  0  0  0  0  0  0  0  0  0  0  0
   -0.0642   -3.9745    1.0543 H   0  0  0  0  0  0  0  0  0  0  0  0
   -1.2673   -4.1642    2.3523 H   0  0  0  0  0  0  0  0  0  0  0  0
   -2.2298  -12.6762    0.9985 H   0  0  0  0  0  0  0  0  0  0  0  0
   -1.5274  -14.5438   -0.4376 H   0  0  0  0  0  0  0  0  0  0  0  0
    0.8777  -10.2339   -0.6596 H   0  0  0  0  0  0  0  0  0  0  0  0
    3.2684  -10.8243   -2.9949 H   0  0  0  0  0  0  0  0  0  0  0  0
    1.7345  -10.0366   -2.5535 H   0  0  0  0  0  0  0  0  0  0  0  0
    2.8463  -10.5954   -1.2809 H   0  0  0  0  0  0  0  0  0  0  0  0
    1.2163  -14.4040   -2.7744 H   0  0  0  0  0  0  0  0  0  0  0  0
   -0.1807  -16.1922   -1.0929 H   0  0  0  0  0  0  0  0  0  0  0  0
   -1.2931  -15.6337   -2.3653 H   0  0  0  0  0  0  0  0  0  0  0  0
   -0.8887  -16.1823   -4.6976 H   0  0  0  0  0  0  0  0  0  0  0  0
    0.1266  -17.7702   -6.2822 H   0  0  0  0  0  0  0  0  0  0  0  0
    1.9606  -19.2398   -5.5476 H   0  0  0  0  0  0  0  0  0  0  0  0
    2.7799  -19.1210   -3.2285 H   0  0  0  0  0  0  0  0  0  0  0  0
    1.7702  -17.5272   -1.6462 H   0  0  0  0  0  0  0  0  0  0  0  0
   -2.4737   -9.5677    6.1075 H   0  0  0  0  0  0  0  0  0  0  0  0
   -0.7093  -12.7932    2.3412 H   0  0  0  0  0  0  0  0  0  0  0  0
   -1.4315  -13.3483    3.7529 H   0  0  0  0  0  0  0  0  0  0  0  0
   -2.6319   -2.4544    1.2472 H   0  0  0  0  0  0  0  0  0  0  0  0
  1  2  1  0  0  0  0
  1 40  1  0  0  0  0
  1 41  1  0  0  0  0
  1 42  1  0  0  0  0
  2  7  1  0  0  0  0
  2  3  1  0  0  0  0
  3  4  1  0  0  0  0
  3 43  1  0  0  0  0
  3 44  1  0  0  0  0
  4  5  1  0  0  0  0
  4 45  1  0  0  0  0
  4 46  1  0  0  0  0
  5  6  1  0  0  0  0
  5  8  1  0  0  0  0
  5 78  1  0  0  0  0
  6  7  1  0  0  0  0
  6 47  1  0  0  0  0
  6 48  1  0  0  0  0
  7 49  1  0  0  0  0
  7 50  1  0  0  0  0
  8 13  1  0  0  0  0
  8  9  1  0  0  0  0
  8 51  1  0  0  0  0
  9 10  1  0  0  0  0
  9 52  1  0  0  0  0
  9 53  1  0  0  0  0
 10 11  1  0  0  0  0
 10 54  1  0  0  0  0
 10 55  1  0  0  0  0
 11 12  1  0  0  0  0
 11 14  1  0  0  0  0
 11 56  1  0  0  0  0
 12 13  1  0  0  0  0
 12 57  1  0  0  0  0
 12 58  1  0  0  0  0
 13 59  1  0  0  0  0
 13 60  1  0  0  0  0
 14 18  1  0  0  0  0
 14 15  1  0  0  0  0
 15 38  2  0  0  0  0
 15 16  1  0  0  0  0
 16 17  1  0  0  0  0
 16 35  2  0  0  0  0
 17 18  2  0  0  0  0
 17 19  1  0  0  0  0
 19 24  2  0  0  0  0
 19 20  1  0  0  0  0
 20 21  2  0  0  0  0
 20 61  1  0  0  0  0
 21 22  1  0  0  0  0
 21 62  1  0  0  0  0
 22 23  2  0  0  0  0
 22 27  1  0  0  0  0
 23 24  1  0  0  0  0
 23 25  1  0  0  0  0
 24 63  1  0  0  0  0
 25 26  1  0  0  0  0
 26 64  1  0  0  0  0
 26 65  1  0  0  0  0
 26 66  1  0  0  0  0
 27 28  1  0  0  0  0
 27 67  1  0  0  0  0
 28 29  1  0  0  0  0
 28 68  1  0  0  0  0
 28 69  1  0  0  0  0
 29 34  2  0  0  0  0
 29 30  1  0  0  0  0
 30 31  2  0  0  0  0
 30 70  1  0  0  0  0
 31 32  1  0  0  0  0
 31 71  1  0  0  0  0
 32 33  2  0  0  0  0
 32 72  1  0  0  0  0
 33 34  1  0  0  0  0
 33 73  1  0  0  0  0
 34 74  1  0  0  0  0
 35 36  1  0  0  0  0
 35 39  1  0  0  0  0
 36 37  2  0  0  0  0
 37 38  1  0  0  0  0
 37 75  1  0  0  0  0
 39 76  1  0  0  0  0
 39 77  1  0  0  0  0
M  CHG  1   5   1
M  END
