CHEMBL91623
  -OEChem-07121202273D

 52 53  0     1  0  0  0  0  0999 V2000
    2.5795    0.8392    3.7060 C   0  0  0  0  0  0  0  0  0  0  0  0
    3.4151   -0.4395    3.7928 C   0  0  2  0  0  0  0  0  0  0  0  0
    3.1730   -1.0896    2.9520 H   0  0  0  0  0  0  0  0  0  0  0  0
    3.1039   -1.1642    5.1038 C   0  0  0  0  0  0  0  0  0  0  0  0
    1.3769   -1.7194    5.0926 S   0  0  0  0  0  0  0  0  0  0  0  0
    4.8795   -0.0865    3.7493 C   0  0  0  0  0  0  0  0  0  0  0  0
    5.6030   -0.3851    4.6758 O   0  0  0  0  0  0  0  0  0  0  0  0
    5.3852    0.5611    2.6810 N   0  0  0  0  0  0  0  0  0  0  0  0
    4.6216    0.9878    1.4943 C   0  0  0  0  0  0  0  0  0  0  0  0
    5.6735    1.0910    0.3618 C   0  0  1  0  0  0  0  0  0  0  0  0
    5.3484    1.7875   -0.4111 H   0  0  0  0  0  0  0  0  0  0  0  0
    6.9032    1.6455    1.1285 C   0  0  0  0  0  0  0  0  0  0  0  0
    6.7885    0.9645    2.5087 C   0  0  1  0  0  0  0  0  0  0  0  0
    7.4333    0.0864    2.5415 H   0  0  0  0  0  0  0  0  0  0  0  0
    7.1804    1.9326    3.5951 C   0  0  0  0  0  0  0  0  0  0  0  0
    6.3747    2.2410    4.4567 O   0  0  0  0  0  0  0  0  0  0  0  0
    8.3032    2.4075    3.6125 O   0  5  0  0  0  0  0  0  0  0  0  0
    5.9607   -0.2269   -0.2099 N   0  0  0  0  0  0  0  0  0  0  0  0
    5.1926   -0.7113   -1.2057 C   0  0  0  0  0  0  0  0  0  0  0  0
    4.2636   -0.0562   -1.6286 O   0  0  0  0  0  0  0  0  0  0  0  0
    5.4879   -2.0670   -1.7938 C   0  0  2  0  0  0  0  0  0  0  0  0
    5.8435   -1.9143   -3.2741 C   0  0  0  0  0  0  0  0  0  0  0  0
    7.1306   -1.1414   -3.4045 C   0  0  0  0  0  0  0  0  0  0  0  0
    7.0991    0.2305   -3.5710 C   0  0  0  0  0  0  0  0  0  0  0  0
    8.2797    0.9395   -3.6906 C   0  0  0  0  0  0  0  0  0  0  0  0
    9.4919    0.2767   -3.6431 C   0  0  0  0  0  0  0  0  0  0  0  0
    9.5234   -1.0951   -3.4757 C   0  0  0  0  0  0  0  0  0  0  0  0
    8.3428   -1.8036   -3.3518 C   0  0  0  0  0  0  0  0  0  0  0  0
    4.2553   -2.9627   -1.6552 C   0  0  0  0  0  0  0  0  0  0  0  0
    4.6607   -4.6401   -2.2142 S   0  0  0  0  0  0  0  0  0  0  0  0
    2.8012    1.3554    2.7720 H   0  0  0  0  0  0  0  0  0  0  0  0
    1.5202    0.5838    3.7374 H   0  0  0  0  0  0  0  0  0  0  0  0
    2.8216    1.4892    4.5468 H   0  0  0  0  0  0  0  0  0  0  0  0
    3.7621   -2.0268    5.2073 H   0  0  0  0  0  0  0  0  0  0  0  0
    3.2615   -0.4843    5.9411 H   0  0  0  0  0  0  0  0  0  0  0  0
    1.2248   -2.3334    6.2796 H   0  0  0  0  0  0  0  0  0  0  0  0
    3.8650    0.2446    1.2426 H   0  0  0  0  0  0  0  0  0  0  0  0
    4.1575    1.9582    1.6706 H   0  0  0  0  0  0  0  0  0  0  0  0
    7.8295    1.3591    0.6304 H   0  0  0  0  0  0  0  0  0  0  0  0
    6.8378    2.7288    1.2304 H   0  0  0  0  0  0  0  0  0  0  0  0
    6.7036   -0.7508    0.1283 H   0  0  0  0  0  0  0  0  0  0  0  0
    6.3265   -2.5183   -1.2634 H   0  0  0  0  0  0  0  0  0  0  0  0
    5.9649   -2.9005   -3.7222 H   0  0  0  0  0  0  0  0  0  0  0  0
    5.0444   -1.3784   -3.7863 H   0  0  0  0  0  0  0  0  0  0  0  0
    6.1521    0.7484   -3.6081 H   0  0  0  0  0  0  0  0  0  0  0  0
    8.2551    2.0113   -3.8214 H   0  0  0  0  0  0  0  0  0  0  0  0
   10.4142    0.8305   -3.7373 H   0  0  0  0  0  0  0  0  0  0  0  0
   10.4704   -1.6131   -3.4390 H   0  0  0  0  0  0  0  0  0  0  0  0
    8.3676   -2.8749   -3.2173 H   0  0  0  0  0  0  0  0  0  0  0  0
    3.9438   -2.9930   -0.6110 H   0  0  0  0  0  0  0  0  0  0  0  0
    3.4450   -2.5625   -2.2645 H   0  0  0  0  0  0  0  0  0  0  0  0
    3.5150   -5.3246   -2.0468 H   0  0  0  0  0  0  0  0  0  0  0  0
  1  2  1  0  0  0  0
  1 31  1  0  0  0  0
  1 32  1  0  0  0  0
  1 33  1  0  0  0  0
  2  3  1  0  0  0  0
  2  4  1  0  0  0  0
  2  6  1  0  0  0  0
  4  5  1  0  0  0  0
  4 34  1  0  0  0  0
  4 35  1  0  0  0  0
  5 36  1  0  0  0  0
  6  7  2  0  0  0  0
  6  8  1  0  0  0  0
  8 13  1  0  0  0  0
  8  9  1  0  0  0  0
  9 10  1  0  0  0  0
  9 37  1  0  0  0  0
  9 38  1  0  0  0  0
 10 11  1  0  0  0  0
 10 12  1  0  0  0  0
 10 18  1  0  0  0  0
 12 13  1  0  0  0  0
 12 39  1  0  0  0  0
 12 40  1  0  0  0  0
 13 14  1  0  0  0  0
 13 15  1  0  0  0  0
 15 16  2  0  0  0  0
 15 17  1  0  0  0  0
 18 19  1  0  0  0  0
 18 41  1  0  0  0  0
 19 20  2  0  0  0  0
 19 21  1  0  0  0  0
 21 22  1  0  0  0  0
 21 29  1  0  0  0  0
 21 42  1  0  0  0  0
 22 23  1  0  0  0  0
 22 43  1  0  0  0  0
 22 44  1  0  0  0  0
 23 28  2  0  0  0  0
 23 24  1  0  0  0  0
 24 25  2  0  0  0  0
 24 45  1  0  0  0  0
 25 26  1  0  0  0  0
 25 46  1  0  0  0  0
 26 27  2  0  0  0  0
 26 47  1  0  0  0  0
 27 28  1  0  0  0  0
 27 48  1  0  0  0  0
 28 49  1  0  0  0  0
 29 30  1  0  0  0  0
 29 50  1  0  0  0  0
 29 51  1  0  0  0  0
 30 52  1  0  0  0  0
M  CHG  1  17  -1
M  END
